# generated using pymatgen
data_Ag5CF4
_symmetry_space_group_name_H-M   'P 1'
_cell_length_a   7.52052653
_cell_length_b   7.52052653
_cell_length_c   10.57683344
_cell_angle_alpha   90.00000000
_cell_angle_beta   90.00000000
_cell_angle_gamma   90.00000000
_symmetry_Int_Tables_number   1
_chemical_formula_structural   Ag5CF4
_chemical_formula_sum   'Ag20 C4 F16'
_cell_volume   598.20792269
_cell_formula_units_Z   4
loop_
 _symmetry_equiv_pos_site_id
 _symmetry_equiv_pos_as_xyz
  1  'x, y, z'
loop_
 _atom_site_type_symbol
 _atom_site_label
 _atom_site_symmetry_multiplicity
 _atom_site_fract_x
 _atom_site_fract_y
 _atom_site_fract_z
 _atom_site_occupancy
  Ag  Ag0  1  0.50000000  0.00000000  0.20315622  1
  Ag  Ag1  1  0.00000000  0.50000000  0.79684378  1
  Ag  Ag2  1  0.50000000  0.00000000  0.49974130  1
  Ag  Ag3  1  0.00000000  0.50000000  0.50025870  1
  Ag  Ag4  1  0.79824495  0.88967035  0.65818248  1
  Ag  Ag5  1  0.11032965  0.79824495  0.34181752  1
  Ag  Ag6  1  0.88967035  0.20175505  0.34181752  1
  Ag  Ag7  1  0.20175505  0.11032965  0.65818248  1
  Ag  Ag8  1  0.37231162  0.70296958  0.65475646  1
  Ag  Ag9  1  0.29703042  0.37231162  0.34524354  1
  Ag  Ag10  1  0.70296958  0.62768838  0.34524354  1
  Ag  Ag11  1  0.62768838  0.29703042  0.65475646  1
  Ag  Ag12  1  0.59196110  0.73381458  0.87525682  1
  Ag  Ag13  1  0.26618542  0.59196110  0.12474318  1
  Ag  Ag14  1  0.73381458  0.40803890  0.12474318  1
  Ag  Ag15  1  0.40803890  0.26618542  0.87525682  1
  Ag  Ag16  1  0.23981920  0.90489638  0.88331712  1
  Ag  Ag17  1  0.09510362  0.23981920  0.11668288  1
  Ag  Ag18  1  0.90489638  0.76018080  0.11668288  1
  Ag  Ag19  1  0.76018080  0.09510362  0.88331712  1
  F  F20  1  0.94224409  0.79277524  0.90313113  1
  F  F21  1  0.20722476  0.94224409  0.09686887  1
  F  F22  1  0.79277524  0.05775591  0.09686887  1
  F  F23  1  0.05775591  0.20722476  0.90313113  1
  F  F24  1  0.71280284  0.44637303  0.89896706  1
  F  F25  1  0.55362697  0.71280284  0.10103294  1
  F  F26  1  0.44637303  0.28719716  0.10103294  1
  F  F27  1  0.28719716  0.55362697  0.89896706  1
  F  F28  1  0.05413716  0.77494599  0.60390632  1
  F  F29  1  0.22505401  0.05413716  0.39609368  1
  F  F30  1  0.77494599  0.94586284  0.39609368  1
  F  F31  1  0.94586284  0.22505401  0.60390632  1
  F  F32  1  0.29196565  0.42984711  0.60472679  1
  F  F33  1  0.57015289  0.29196565  0.39527321  1
  F  F34  1  0.42984711  0.70803435  0.39527321  1
  F  F35  1  0.70803435  0.57015289  0.60472679  1
  C  C36  1  0.42089218  0.96190439  0.73228536  1
  C  C37  1  0.03809561  0.42089218  0.26771464  1
  C  C38  1  0.96190439  0.57910782  0.26771464  1
  C  C39  1  0.57910782  0.03809561  0.73228536  1
